# File generated by Flopy version 3.3.6 on 07/29/2022 at 12:48:13.
BEGIN options
END options

BEGIN dimensions
  NLAY  5
  NROW  1
  NCOL  1
END dimensions

BEGIN griddata
  delr
    CONSTANT       1.00000000
  delc
    CONSTANT       1.00000000
  top
    CONSTANT     100.00000000
  botm  LAYERED
    CONSTANT      80.00000000
    CONSTANT      60.00000000
    CONSTANT      40.00000000
    CONSTANT      20.00000000
    CONSTANT       0.00000000
  idomain  LAYERED
    CONSTANT  1
    CONSTANT  1
    CONSTANT  1
    CONSTANT  1
    CONSTANT  1
END griddata

