# File generated by Flopy version 3.3.6 on 07/29/2022 at 12:48:13.
BEGIN options
  PRINT_INPUT
  PRINT_FLOWS
END options

BEGIN dimensions
  MAXBOUND  1
END dimensions

BEGIN period  1
  5 1 1      30.00000000       0.10000000
END period  1

BEGIN period  2
  5 1 1     100.00000000       0.10000000
END period  2

