# File generated by Flopy version 3.3.6 on 07/29/2022 at 12:48:13.
BEGIN options
  VARIABLECV  DEWATERED
  REWET  WETFCT       1.00000000  IWETIT  1  IHDWET  1
END options

BEGIN griddata
  icelltype
    CONSTANT  1
  k
    CONSTANT       2.00000000
  wetdry
    CONSTANT      -0.00100000
END griddata

