# File generated by Flopy version 3.3.6 on 07/29/2022 at 12:48:13.
BEGIN options
END options

BEGIN packages
  DIS6  gwf_ats02a.dis  dis
  IC6  gwf_ats02a.ic  ic
  NPF6  gwf_ats02a.npf  npf
  STO6  gwf_ats02a.sto  sto
  GHB6  gwf_ats02a.ghb  ghb_0
  OC6  gwf_ats02a.oc  oc
  OBS6  gwf_ats02a.obs  head_obs
END packages

