# File generated by Flopy version 3.3.6 on 07/29/2022 at 12:48:13.
BEGIN options
END options

BEGIN timing
  TDIS6  gwf_ats02a.tdis
END timing

BEGIN models
  gwf6  gwf_ats02a.nam  gwf_ats02a
END models

BEGIN exchanges
END exchanges

BEGIN solutiongroup  1
  ims6  gwf_ats02a.ims  gwf_ats02a
END solutiongroup  1

