# File generated by Flopy version 3.3.6 on 07/29/2022 at 12:48:33.
BEGIN options
  PRINT_INPUT
  NEWTON  UNDER_RELAXATION
END options

BEGIN packages
  DISV6  gwf_maw_08b.disv  disv
  IC6  gwf_maw_08b.ic  ic
  NPF6  gwf_maw_08b.npf  npf
  MAW6  gwf_maw_08b.maw  maw_0
  OC6  gwf_maw_08b.oc  oc
END packages

