# File generated by Flopy version 3.3.6 on 07/29/2022 at 12:48:33.
BEGIN options
  PRINT_INPUT
  PRINT_HEAD
  PRINT_FLOWS
  SAVE_FLOWS
  HEAD  FILEOUT  gwf_maw_08b.maw.bin
  BUDGET  FILEOUT  gwf_maw_08b.maw.bud
  OBS6  FILEIN  gwf_maw_08b.maw.obs
END options

BEGIN dimensions
  NMAWWELLS  1
END dimensions

BEGIN packagedata
  1       0.05000000      15.00000000      16.00000000  thiem  2
END packagedata

BEGIN connectiondata
  1  1  1 1     100.00000000       0.00000000    -999.00000000    -999.00000000
  1  2  2 1     100.00000000       0.00000000    -999.00000000    -999.00000000
END connectiondata

