# File generated by Flopy version 3.3.6 on 07/29/2022 at 12:48:33.
BEGIN options
  MEMORY_PRINT_OPTION  summary
END options

BEGIN timing
  TDIS6  maw_08b.tdis
END timing

BEGIN models
  gwf6  gwf_maw_08b.nam  gwf_maw_08b
END models

BEGIN exchanges
END exchanges

BEGIN solutiongroup  1
  ims6  maw_08b.ims  gwf_maw_08b
END solutiongroup  1

