# File generated by Flopy version 3.3.6 on 07/29/2022 at 12:48:32.
BEGIN options
  PRINT_INPUT
  NEWTON  UNDER_RELAXATION
END options

BEGIN packages
  DIS6  gwf_maw_08a.dis  dis
  IC6  gwf_maw_08a.ic  ic
  NPF6  gwf_maw_08a.npf  npf
  MAW6  gwf_maw_08a.maw  maw_0
  OC6  gwf_maw_08a.oc  oc
END packages

