# File generated by Flopy version 3.3.6 on 07/29/2022 at 12:48:21.
BEGIN options
END options

BEGIN packages
  DIS6  maw03c.dis  dis
  IC6  maw03c.ic  ic
  NPF6  maw03c.npf  npf
  STO6  maw03c.sto  sto
  MAW6  maw03c.maw  maw_0
  OC6  maw03c.oc  oc
  OBS6  maw03c.obs  head_obs
END packages

