# File generated by Flopy version 3.3.6 on 07/29/2022 at 12:48:21.
BEGIN options
END options

BEGIN dimensions
  NLAY  1
  NROW  101
  NCOL  101
END dimensions

BEGIN griddata
  delr
    CONSTANT     142.00000000
  delc
    CONSTANT     142.00000000
  top
    CONSTANT       0.00000000
  botm
    CONSTANT   -1000.00000000
  idomain
    CONSTANT  1
END griddata

