# File generated by Flopy version 3.3.6 on 07/29/2022 at 12:48:21.
BEGIN options
END options

BEGIN timing
  TDIS6  maw03c.tdis
END timing

BEGIN models
  gwf6  maw03c.nam  maw03c
END models

BEGIN exchanges
END exchanges

BEGIN solutiongroup  1
  ims6  maw03c.ims  maw03c
END solutiongroup  1

