# File generated by Flopy version 3.3.6 on 07/29/2022 at 12:48:17.
BEGIN options
  NEWTON
END options

BEGIN packages
  DIS6  maw01nwt.dis  dis
  IC6  maw01nwt.ic  ic
  NPF6  maw01nwt.npf  npf
  STO6  maw01nwt.sto  sto
  CHD6  maw01nwt.chd  chd_0
  MAW6  maw01nwt.maw  maw_0
  OC6  maw01nwt.oc  oc
END packages

