# File generated by Flopy version 3.3.6 on 07/29/2022 at 12:48:17.
BEGIN options
END options

BEGIN dimensions
  NLAY  1
  NROW  1
  NCOL  3
END dimensions

BEGIN griddata
  delr
    CONSTANT     300.00000000
  delc
    CONSTANT     300.00000000
  top
    CONSTANT     100.00000000
  botm
    CONSTANT       0.00000000
  idomain
    CONSTANT  1
END griddata

