# File generated by Flopy version 3.3.6 on 07/29/2022 at 12:48:17.
BEGIN options
END options

BEGIN timing
  TDIS6  maw01nwt.tdis
END timing

BEGIN models
  gwf6  maw01nwt.nam  maw01nwt
END models

BEGIN exchanges
END exchanges

BEGIN solutiongroup  1
  ims6  maw01nwt.ims  maw01nwt
END solutiongroup  1

