# File generated by Flopy version 3.3.6 on 07/29/2022 at 12:48:37.
BEGIN options
END options

BEGIN packages
  DIS6  maw10b.dis  dis
  IC6  maw10b.ic  ic
  NPF6  maw10b.npf  npf
  STO6  maw10b.sto  sto
  MAW6  maw10b.maw  maw_0
  OC6  maw10b.oc  oc
  OBS6  maw10b.obs  head_obs
END packages

