# File generated by Flopy version 3.3.6 on 07/29/2022 at 12:48:37.
BEGIN options
  BUDGET  FILEOUT  maw10b.cbc
  HEAD  FILEOUT  maw10b.hds
  HEAD  PRINT_FORMAT  COLUMNS  101  WIDTH  15  DIGITS  6  GENERAL
END options

BEGIN period  1
  SAVE  HEAD  ALL
  PRINT  HEAD  ALL
  PRINT  BUDGET  ALL
END period  1

