# File generated by Flopy version 3.3.6 on 07/29/2022 at 12:48:37.
BEGIN options
END options

BEGIN timing
  TDIS6  maw10b.tdis
END timing

BEGIN models
  gwf6  maw10b.nam  maw10b
END models

BEGIN exchanges
END exchanges

BEGIN solutiongroup  1
  ims6  maw10b.ims  maw10b
END solutiongroup  1

