# File generated by Flopy version 3.3.6 on 07/29/2022 at 12:48:27.
BEGIN options
  SAVE_FLOWS
END options

BEGIN packages
  DIS6  maw_iss305f.dis  dis
  IC6  maw_iss305f.ic  ic
  NPF6  maw_iss305f.npf  npf
  STO6  maw_iss305f.sto  sto
  CHD6  maw_iss305f.chd  chd_0
  MAW6  maw_iss305f.maw  maw_0
  OC6  maw_iss305f.oc  oc
END packages

