# File generated by Flopy version 3.3.6 on 07/29/2022 at 12:48:44.
BEGIN options
END options

BEGIN packages
  DIS6  maw_obs.dis  dis
  IC6  maw_obs.ic  ic
  NPF6  maw_obs.npf  npf
  STO6  maw_obs.sto  sto
  CHD6  maw_obs.chd  chd_0
  MAW6  maw_obs.maw  maw_0
  OC6  maw_obs.oc  oc
END packages

