# File generated by Flopy version 3.3.6 on 07/29/2022 at 12:48:44.
BEGIN options
  PRINT_INPUT
  PRINT_HEAD
  PRINT_FLOWS
  SAVE_FLOWS
  OBS6  FILEIN  maw_obs.maw.obs
END options

BEGIN dimensions
  NMAWWELLS  1
END dimensions

BEGIN packagedata
  1       0.10000000      50.00000000     100.00000000  THIEM  1
END packagedata

BEGIN connectiondata
  1  1  1 1 2     100.00000000      50.00000000       1.00000000       0.10000000
END connectiondata

BEGIN period  1
  1  rate       0.00000000
END period  1

