# File generated by Flopy version 3.3.6 on 07/29/2022 at 12:48:44.
BEGIN options
END options

BEGIN timing
  TDIS6  maw_obs.tdis
END timing

BEGIN models
  gwf6  maw_obs.nam  maw_obs
END models

BEGIN exchanges
END exchanges

BEGIN solutiongroup  1
  ims6  maw_obs.ims  maw_obs
END solutiongroup  1

