# File generated by Flopy version 3.3.6 on 07/29/2022 at 12:48:25.
BEGIN options
END options

BEGIN nonlinear
  OUTER_DVCLOSE  1.00000000E-09
END nonlinear

BEGIN linear
  INNER_DVCLOSE  1.00000000E-09
  inner_rclose  1.00000000E-06
END linear

