# File generated by Flopy version 3.3.6 on 07/29/2022 at 12:48:25.
BEGIN options
  PRINT_INPUT
  NO_WELL_STORAGE
END options

BEGIN dimensions
  NMAWWELLS  1
END dimensions

BEGIN packagedata
  1       0.25000000    -350.00000000       0.00000000  CUMULATIVE  2
END packagedata

BEGIN connectiondata
  1  1  1 52 52       0.00000000    -175.00000000       0.10000000       0.35000000
  1  2  2 52 52    -175.00000000    -350.00000000       0.10000000       0.35000000
END connectiondata

BEGIN period  2
  1  RATE    -100.00000000
END period  2

