# File generated by Flopy version 3.3.6 on 07/29/2022 at 12:48:25.
BEGIN options
  SAVE_FLOWS
END options

BEGIN packages
  DIS6  maw_iss305a.dis  dis
  IC6  maw_iss305a.ic  ic
  NPF6  maw_iss305a.npf  npf
  STO6  maw_iss305a.sto  sto
  CHD6  maw_iss305a.chd  chd_0
  MAW6  maw_iss305a.maw  maw_0
  OC6  maw_iss305a.oc  oc
END packages

