# File generated by Flopy version 3.3.6 on 07/29/2022 at 12:48:25.
BEGIN options
END options

BEGIN timing
  TDIS6  maw_iss305a.tdis
END timing

BEGIN models
  gwf6  maw_iss305a.nam  maw_iss305a
END models

BEGIN exchanges
END exchanges

BEGIN solutiongroup  1
  ims6  maw_iss305a.ims  maw_iss305a
END solutiongroup  1

