# File generated by Flopy version 3.3.6 on 07/29/2022 at 12:48:32.
BEGIN options
  PRINT_OPTION  summary
END options

BEGIN nonlinear
  OUTER_DVCLOSE  1.00000000E-09
  OUTER_MAXIMUM  700
  UNDER_RELAXATION  simple
  UNDER_RELAXATION_GAMMA       0.98000000
END nonlinear

BEGIN linear
  INNER_MAXIMUM  200
  INNER_DVCLOSE  1.00000000E-09
  inner_rclose  1.00000000E-09  strict
  LINEAR_ACCELERATION  bicgstab
  RELAXATION_FACTOR       1.00000000
  SCALING_METHOD  none
  REORDERING_METHOD  none
END linear

