# File generated by Flopy version 3.3.6 on 07/29/2022 at 12:48:32.
BEGIN options
  MEMORY_PRINT_OPTION  summary
END options

BEGIN timing
  TDIS6  maw_07b.tdis
END timing

BEGIN models
  gwf6  gwf_maw_07b.nam  gwf_maw_07b
END models

BEGIN exchanges
END exchanges

BEGIN solutiongroup  1
  ims6  gwf_maw_07b.ims  gwf_maw_07b
END solutiongroup  1

