# File generated by Flopy version 3.3.6 on 07/29/2022 at 12:48:27.
BEGIN options
  SAVE_FLOWS
END options

BEGIN packages
  DIS6  maw_iss305e.dis  dis
  IC6  maw_iss305e.ic  ic
  NPF6  maw_iss305e.npf  npf
  STO6  maw_iss305e.sto  sto
  CHD6  maw_iss305e.chd  chd_0
  MAW6  maw_iss305e.maw  maw_0
  OC6  maw_iss305e.oc  oc
END packages

