# File generated by Flopy version 3.3.6 on 07/29/2022 at 12:48:27.
BEGIN options
END options

BEGIN timing
  TDIS6  maw_iss305e.tdis
END timing

BEGIN models
  gwf6  maw_iss305e.nam  maw_iss305e
END models

BEGIN exchanges
END exchanges

BEGIN solutiongroup  1
  ims6  maw_iss305e.ims  maw_iss305e
END solutiongroup  1

