# File generated by Flopy version 3.3.6 on 07/29/2022 at 12:48:35.
BEGIN options
  PRINT_INPUT
  NEWTON  UNDER_RELAXATION
END options

BEGIN packages
  DISV6  gwf_maw_09d.disv  disv
  IC6  gwf_maw_09d.ic  ic
  NPF6  gwf_maw_09d.npf  npf
  OBS6  gwf_maw_09d.gwf.obs  obs_0
  STO6  gwf_maw_09d.sto  sto
  MAW6  gwf_maw_09d.maw  maw_0
  OC6  gwf_maw_09d.oc  oc
END packages

