# File generated by Flopy version 3.3.6 on 07/29/2022 at 12:48:12.
BEGIN options
  DIGITS  20
END options

BEGIN continuous  FILEOUT  gwf_ats01a.obs.csv
  obs1  head  1 1 1
  obs2  head  1 1 2
END continuous  FILEOUT  gwf_ats01a.obs.csv

