# File generated by Flopy version 3.3.6 on 07/29/2022 at 12:48:12.
BEGIN options
END options

BEGIN griddata
  iconvert
    CONSTANT  1
  ss
    CONSTANT       0.00000000
  sy
    CONSTANT       0.10000000
END griddata

BEGIN period  1
  TRANSIENT
END period  1

