# File generated by Flopy version 3.3.6 on 07/29/2022 at 12:48:12.
BEGIN options
  TIME_UNITS  days
  ATS6  FILEIN  gwf_ats01a.ats
END options

BEGIN dimensions
  NPER  1
END dimensions

BEGIN perioddata
      10.00000000  1       1.00000000
END perioddata

