# Name file for MODFLOW-2005, generated by Flopy version 3.3.6.
#xll:0.0; yll:0.0; rotation:0.0; units:meters; lenuni:2; start_datetime:1-1-1970
LIST               2  maw_iss305a.list
DIS               11  maw_iss305a.dis
BAS6              13  maw_iss305a.bas
LPF               15  maw_iss305a.lpf
CHD               24  maw_iss305a.chd
MNW2              34  maw_iss305a.mnw2
OC                14  maw_iss305a.oc
PCG               27  maw_iss305a.pcg
DATA(BINARY)      51  maw_iss305a.hds REPLACE
