# DIS package for MODFLOW-2005 generated by Flopy 3.3.6
         2       101       101         2         4         2
  0  0
INTERNAL               1 (101E15.6) -1 #delr                          
   1.622071E+01   1.231585E+01   1.219391E+01   1.207318E+01   1.195365E+01   1.183529E+01   1.171811E+01   1.160209E+01   1.148722E+01   1.137348E+01   1.126088E+01   1.114938E+01   1.103899E+01   1.092970E+01   1.082148E+01   1.071434E+01   1.060825E+01   1.050322E+01   1.039923E+01   1.029627E+01   1.019432E+01   1.009339E+01   9.993455E+00   9.894510E+00   9.796545E+00   9.699550E+00   9.603514E+00   9.508430E+00   9.414287E+00   9.321076E+00   9.228788E+00   9.137414E+00   9.046945E+00   8.957371E+00   8.868684E+00   8.780875E+00   8.693936E+00   8.607858E+00   8.522631E+00   8.438249E+00   8.354702E+00   8.271982E+00   8.190081E+00   8.108991E+00   8.028704E+00   7.949212E+00   7.870507E+00   7.792581E+00   7.715427E+00   7.639037E+00   7.563402E+00   7.639037E+00   7.715427E+00   7.792581E+00   7.870507E+00   7.949212E+00   8.028704E+00   8.108991E+00   8.190081E+00   8.271982E+00   8.354702E+00   8.438249E+00   8.522631E+00   8.607858E+00   8.693936E+00   8.780875E+00   8.868684E+00   8.957371E+00   9.046945E+00   9.137414E+00   9.228788E+00   9.321076E+00   9.414287E+00   9.508430E+00   9.603514E+00   9.699550E+00   9.796545E+00   9.894510E+00   9.993455E+00   1.009339E+01   1.019432E+01   1.029627E+01   1.039923E+01   1.050322E+01   1.060825E+01   1.071434E+01   1.082148E+01   1.092970E+01   1.103899E+01   1.114938E+01   1.126088E+01   1.137348E+01   1.148722E+01   1.160209E+01   1.171811E+01   1.183529E+01   1.195365E+01   1.207318E+01   1.219391E+01   1.231585E+01   1.622071E+01
INTERNAL               1 (101E15.6) -1 #delc                          
   1.622071E+01   1.231585E+01   1.219391E+01   1.207318E+01   1.195365E+01   1.183529E+01   1.171811E+01   1.160209E+01   1.148722E+01   1.137348E+01   1.126088E+01   1.114938E+01   1.103899E+01   1.092970E+01   1.082148E+01   1.071434E+01   1.060825E+01   1.050322E+01   1.039923E+01   1.029627E+01   1.019432E+01   1.009339E+01   9.993455E+00   9.894510E+00   9.796545E+00   9.699550E+00   9.603514E+00   9.508430E+00   9.414287E+00   9.321076E+00   9.228788E+00   9.137414E+00   9.046945E+00   8.957371E+00   8.868684E+00   8.780875E+00   8.693936E+00   8.607858E+00   8.522631E+00   8.438249E+00   8.354702E+00   8.271982E+00   8.190081E+00   8.108991E+00   8.028704E+00   7.949212E+00   7.870507E+00   7.792581E+00   7.715427E+00   7.639037E+00   7.563402E+00   7.639037E+00   7.715427E+00   7.792581E+00   7.870507E+00   7.949212E+00   8.028704E+00   8.108991E+00   8.190081E+00   8.271982E+00   8.354702E+00   8.438249E+00   8.522631E+00   8.607858E+00   8.693936E+00   8.780875E+00   8.868684E+00   8.957371E+00   9.046945E+00   9.137414E+00   9.228788E+00   9.321076E+00   9.414287E+00   9.508430E+00   9.603514E+00   9.699550E+00   9.796545E+00   9.894510E+00   9.993455E+00   1.009339E+01   1.019432E+01   1.029627E+01   1.039923E+01   1.050322E+01   1.060825E+01   1.071434E+01   1.082148E+01   1.092970E+01   1.103899E+01   1.114938E+01   1.126088E+01   1.137348E+01   1.148722E+01   1.160209E+01   1.171811E+01   1.183529E+01   1.195365E+01   1.207318E+01   1.219391E+01   1.231585E+01   1.622071E+01
CONSTANT    0.000000E+00                           #model_top                     
CONSTANT   -1.750000E+02                           #botm layer 1                  
CONSTANT   -3.500000E+02                           #botm layer 2                  
      0.000000             1  1.000000  SS 
    365.000000            25  1.100000  TR 
