# MNW2 package for MODFLOW-2005 generated by Flopy 3.3.6
1 0 2
well1 -2
            skin 0 0 0 0
               2.5000000E-01    3.4999999E-01    1.0000000E-01
               0.0000000E+00   -1.7500000E+02 52 52
              -1.7500000E+02   -3.5000000E+02 52 52
1  Stress Period 1
well1    0.0000000E+00
1  Stress Period 2
well1   -1.0000000E+02
