# File generated by Flopy version 3.3.6 on 07/29/2022 at 12:48:28.
BEGIN options
  DIGITS  20
  PRINT_INPUT
END options

BEGIN continuous  FILEOUT  gwf_maw_05b.maw.obs.csv
  whead  head  1
END continuous  FILEOUT  gwf_maw_05b.maw.obs.csv

