# File generated by Flopy version 3.3.6 on 07/29/2022 at 12:48:28.
BEGIN options
  NEWTON  UNDER_RELAXATION
END options

BEGIN packages
  DIS6  gwf_maw_05b.dis  dis
  IC6  gwf_maw_05b.ic  ic
  NPF6  gwf_maw_05b.npf  npf
  STO6  gwf_maw_05b.sto  sto
  MAW6  gwf_maw_05b.maw  maw-1
  OC6  gwf_maw_05b.oc  oc
END packages

