# File generated by Flopy version 3.3.6 on 07/29/2022 at 12:48:31.
BEGIN options
  PRINT_INPUT
  PRINT_HEAD
  PRINT_FLOWS
  SAVE_FLOWS
  HEAD  FILEOUT  gwf_maw_07a.maw.bin
  BUDGET  FILEOUT  gwf_maw_07a.maw.bud
  FLOW_CORRECTION
  OBS6  FILEIN  gwf_maw_07a.maw.obs
END options

BEGIN dimensions
  NMAWWELLS  1
END dimensions

BEGIN packagedata
  1       0.56418958       0.00000000       0.25000000  SPECIFIED  2
END packagedata

BEGIN connectiondata
  1  1  1 1 1       2.00000000       0.00000000       2.00000000    -999.00000000
  1  2  2 1 1       2.00000000       0.00000000       2.00000000    -999.00000000
END connectiondata

BEGIN period  1
  1  STATUS  INACTIVE
END period  1

BEGIN period  2
  1  STATUS  ACTIVE
END period  2

