# File generated by Flopy version 3.3.6 on 07/29/2022 at 12:48:31.
BEGIN options
END options

BEGIN dimensions
  NLAY  2
  NROW  1
  NCOL  1
END dimensions

BEGIN griddata
  delr
    CONSTANT       1.00000000
  delc
    CONSTANT       1.00000000
  top
    CONSTANT       2.00000000
  botm  LAYERED
    CONSTANT       1.00000000
    CONSTANT       0.00000000
END griddata

