# File generated by Flopy version 3.3.6 on 07/29/2022 at 12:48:31.
BEGIN options
  MEMORY_PRINT_OPTION  summary
END options

BEGIN timing
  TDIS6  maw_07a.tdis
END timing

BEGIN models
  gwf6  gwf_maw_07a.nam  gwf_maw_07a
END models

BEGIN exchanges
END exchanges

BEGIN solutiongroup  1
  ims6  gwf_maw_07a.ims  gwf_maw_07a
END solutiongroup  1

