# File generated by Flopy version 3.3.6 on 07/29/2022 at 12:48:17.
BEGIN options
END options

BEGIN packages
  DIS6  maw01.dis  dis
  IC6  maw01.ic  ic
  NPF6  maw01.npf  npf
  STO6  maw01.sto  sto
  CHD6  maw01.chd  chd_0
  MAW6  maw01.maw  maw_0
  OC6  maw01.oc  oc
END packages

