# File generated by Flopy version 3.3.6 on 07/29/2022 at 12:48:17.
BEGIN options
END options

BEGIN timing
  TDIS6  maw01.tdis
END timing

BEGIN models
  gwf6  maw01.nam  maw01
END models

BEGIN exchanges
END exchanges

BEGIN solutiongroup  1
  ims6  maw01.ims  maw01
END solutiongroup  1

