# File generated by Flopy version 3.3.6 on 07/29/2022 at 12:48:34.
BEGIN options
END options

BEGIN dimensions
  NLAY  3
  NCPL  1
  NVERT  4
END dimensions

BEGIN griddata
  top
    CONSTANT      30.00000000
  botm  LAYERED
    CONSTANT      20.00000000
    CONSTANT      10.00000000
    CONSTANT       0.00000000
END griddata

BEGIN vertices
  1       0.00000000       0.00000000
  2       0.00000000       1.00000000
  3       1.00000000       1.00000000
  4       1.00000000       0.00000000
END vertices

BEGIN cell2d
  1       0.50000000       0.50000000  5  1  2  3  4  1
END cell2d

