# File generated by Flopy version 3.3.6 on 07/29/2022 at 12:48:34.
BEGIN options
  PRINT_INPUT
  NEWTON  UNDER_RELAXATION
END options

BEGIN packages
  DISV6  gwf_maw_09c.disv  disv
  IC6  gwf_maw_09c.ic  ic
  NPF6  gwf_maw_09c.npf  npf
  OBS6  gwf_maw_09c.gwf.obs  obs_0
  STO6  gwf_maw_09c.sto  sto
  MAW6  gwf_maw_09c.maw  maw_0
  OC6  gwf_maw_09c.oc  oc
END packages

