# File generated by Flopy version 3.3.6 on 07/29/2022 at 12:48:34.
BEGIN options
  DIGITS  20
  PRINT_INPUT
END options

BEGIN continuous  FILEOUT  gwf_maw_09c.gwf.obs.csv
  C1  HEAD  1 1
  C2  HEAD  2 1
  C3  HEAD  3 1
END continuous  FILEOUT  gwf_maw_09c.gwf.obs.csv

