# File generated by Flopy version 3.3.6 on 07/29/2022 at 12:48:34.
BEGIN options
  MEMORY_PRINT_OPTION  summary
END options

BEGIN timing
  TDIS6  maw_09c.tdis
END timing

BEGIN models
  gwf6  gwf_maw_09c.nam  gwf_maw_09c
END models

BEGIN exchanges
END exchanges

BEGIN solutiongroup  1
  ims6  maw_09c.ims  gwf_maw_09c
END solutiongroup  1

