# File generated by Flopy version 3.3.6 on 07/29/2022 at 12:48:35.
BEGIN options
  PRINT_INPUT
  PRINT_HEAD
  PRINT_FLOWS
  SAVE_FLOWS
  OBS6  FILEIN  maw10a.maw.obs
END options

BEGIN dimensions
  NMAWWELLS  1
END dimensions

BEGIN packagedata
  1       0.15000000   -1000.00000000       0.00000000  THIEM  1
END packagedata

BEGIN connectiondata
  1  1  1 51 51       0.00000000   -1000.00000000       0.00000000       0.00000000
END connectiondata

BEGIN period  1
  1  rate   -2000.00000000
  1  head_limit  -0.4
END period  1

BEGIN period  2
  1  status  inactive
END period  2

