# File generated by Flopy version 3.3.6 on 07/29/2022 at 12:48:35.
BEGIN options
END options

BEGIN packages
  DIS6  maw10a.dis  dis
  IC6  maw10a.ic  ic
  NPF6  maw10a.npf  npf
  STO6  maw10a.sto  sto
  MAW6  maw10a.maw  maw_0
  OC6  maw10a.oc  oc
  OBS6  maw10a.obs  head_obs
END packages

