# File generated by Flopy version 3.3.6 on 07/29/2022 at 12:48:35.
BEGIN options
END options

BEGIN timing
  TDIS6  maw10a.tdis
END timing

BEGIN models
  gwf6  maw10a.nam  maw10a
END models

BEGIN exchanges
END exchanges

BEGIN solutiongroup  1
  ims6  maw10a.ims  maw10a
END solutiongroup  1

