# File generated by Flopy version 3.3.6 on 07/29/2022 at 12:48:41.
BEGIN options
END options

BEGIN packages
  DIS6  maw10d.dis  dis
  IC6  maw10d.ic  ic
  NPF6  maw10d.npf  npf
  STO6  maw10d.sto  sto
  MAW6  maw10d.maw  maw_0
  OC6  maw10d.oc  oc
  OBS6  maw10d.obs  head_obs
END packages

