# File generated by Flopy version 3.3.6 on 07/29/2022 at 12:48:41.
BEGIN options
END options

BEGIN timing
  TDIS6  maw10d.tdis
END timing

BEGIN models
  gwf6  maw10d.nam  maw10d
END models

BEGIN exchanges
END exchanges

BEGIN solutiongroup  1
  ims6  maw10d.ims  maw10d
END solutiongroup  1

