# File generated by Flopy version 3.3.6 on 07/29/2022 at 12:48:28.
BEGIN options
  BUDGET  FILEOUT  gwf_maw_05a.cbc
  HEAD  FILEOUT  gwf_maw_05a.hds
  HEAD  PRINT_FORMAT  COLUMNS  10  WIDTH  15  DIGITS  6  GENERAL
END options

BEGIN period  1
  SAVE  HEAD  ALL
  SAVE  BUDGET  ALL
  PRINT  HEAD  ALL
  PRINT  BUDGET  ALL
END period  1

