# File generated by Flopy version 3.3.6 on 07/29/2022 at 12:48:28.
BEGIN options
  PRINT_INPUT
  PRINT_HEAD
  PRINT_FLOWS
  SAVE_FLOWS
  HEAD  FILEOUT  gwf_maw_05a.maw.bin
  BUDGET  FILEOUT  gwf_maw_05a.maw.bud
  OBS6  FILEIN  gwf_maw_05a.maw.obs
END options

BEGIN dimensions
  NMAWWELLS  1
END dimensions

BEGIN packagedata
  1       0.10000000       0.00000000       4.00000000  THIEM  4
END packagedata

BEGIN connectiondata
  1  1  1 1 1       4.00000000       0.00000000    -999.00000000    -999.00000000
  1  2  2 1 1       4.00000000       0.00000000    -999.00000000    -999.00000000
  1  3  3 1 1       4.00000000       0.00000000    -999.00000000    -999.00000000
  1  4  4 1 1       4.00000000       0.00000000    -999.00000000    -999.00000000
END connectiondata

BEGIN period  1
  1  STATUS  ACTIVE
END period  1

