# File generated by Flopy version 3.3.6 on 07/29/2022 at 12:48:28.
BEGIN options
  NEWTON  UNDER_RELAXATION
END options

BEGIN packages
  DIS6  gwf_maw_05a.dis  dis
  IC6  gwf_maw_05a.ic  ic
  NPF6  gwf_maw_05a.npf  npf
  STO6  gwf_maw_05a.sto  sto
  MAW6  gwf_maw_05a.maw  maw-1
  OC6  gwf_maw_05a.oc  oc
END packages

