# File generated by Flopy version 3.3.6 on 07/29/2022 at 12:48:28.
BEGIN options
  PRINT_OPTION  all
END options

BEGIN nonlinear
  OUTER_DVCLOSE  1.00000000E-08
  OUTER_MAXIMUM  700
  UNDER_RELAXATION  simple
  UNDER_RELAXATION_GAMMA       0.10000000
END nonlinear

BEGIN linear
  INNER_MAXIMUM  10
  INNER_DVCLOSE  1.00000000E-08
  inner_rclose  1.00000000E-06
  LINEAR_ACCELERATION  bicgstab
  RELAXATION_FACTOR       0.97000000
  SCALING_METHOD  none
  REORDERING_METHOD  none
END linear

