# File generated by Flopy version 3.3.6 on 07/29/2022 at 12:48:28.
BEGIN options
END options

BEGIN timing
  TDIS6  maw_05a.tdis
END timing

BEGIN models
  gwf6  gwf_maw_05a.nam  gwf_maw_05a
END models

BEGIN exchanges
END exchanges

BEGIN solutiongroup  1
  ims6  gwf_maw_05a.ims  gwf_maw_05a
END solutiongroup  1

