# File generated by Flopy version 3.3.6 on 07/29/2022 at 12:48:30.
BEGIN options
  MEMORY_PRINT_OPTION  summary
END options

BEGIN timing
  TDIS6  maw_06b.tdis
END timing

BEGIN models
  gwf6  gwf_maw_06b.nam  gwf_maw_06b
END models

BEGIN exchanges
END exchanges

BEGIN solutiongroup  1
  ims6  gwf_maw_06b.ims  gwf_maw_06b
END solutiongroup  1

