# File generated by Flopy version 3.3.6 on 07/29/2022 at 12:48:29.
BEGIN options
  NEWTON  UNDER_RELAXATION
END options

BEGIN packages
  DIS6  gwf_maw_05c.dis  dis
  IC6  gwf_maw_05c.ic  ic
  NPF6  gwf_maw_05c.npf  npf
  STO6  gwf_maw_05c.sto  sto
  MAW6  gwf_maw_05c.maw  maw-1
  OC6  gwf_maw_05c.oc  oc
END packages

