# File generated by Flopy version 3.3.6 on 07/29/2022 at 12:48:29.
BEGIN griddata
  strt
    CONSTANT       4.00000000
END griddata

