# File generated by Flopy version 3.3.6 on 07/29/2022 at 12:48:29.
BEGIN options
END options

BEGIN timing
  TDIS6  maw_05c.tdis
END timing

BEGIN models
  gwf6  gwf_maw_05c.nam  gwf_maw_05c
END models

BEGIN exchanges
END exchanges

BEGIN solutiongroup  1
  ims6  gwf_maw_05c.ims  gwf_maw_05c
END solutiongroup  1

