# File generated by Flopy version 3.3.6 on 07/29/2022 at 12:48:26.
BEGIN options
  TIME_UNITS  days
END options

BEGIN dimensions
  NPER  2
END dimensions

BEGIN perioddata
       0.00000000  1       1.00000000
     365.00000000  25       1.10000000
END perioddata

