# File generated by Flopy version 3.3.6 on 07/29/2022 at 12:48:26.
BEGIN options
  SAVE_FLOWS
END options

BEGIN packages
  DIS6  maw_iss305b.dis  dis
  IC6  maw_iss305b.ic  ic
  NPF6  maw_iss305b.npf  npf
  STO6  maw_iss305b.sto  sto
  CHD6  maw_iss305b.chd  chd_0
  MAW6  maw_iss305b.maw  maw_0
  OC6  maw_iss305b.oc  oc
END packages

