# File generated by Flopy version 3.3.6 on 07/29/2022 at 12:48:26.
BEGIN options
END options

BEGIN timing
  TDIS6  maw_iss305b.tdis
END timing

BEGIN models
  gwf6  maw_iss305b.nam  maw_iss305b
END models

BEGIN exchanges
END exchanges

BEGIN solutiongroup  1
  ims6  maw_iss305b.ims  maw_iss305b
END solutiongroup  1

