# File generated by Flopy version 3.3.6 on 07/29/2022 at 12:48:39.
BEGIN options
END options

BEGIN packages
  DIS6  maw10c.dis  dis
  IC6  maw10c.ic  ic
  NPF6  maw10c.npf  npf
  STO6  maw10c.sto  sto
  MAW6  maw10c.maw  maw_0
  OC6  maw10c.oc  oc
  OBS6  maw10c.obs  head_obs
END packages

