# File generated by Flopy version 3.3.6 on 07/29/2022 at 12:48:39.
BEGIN options
  DIGITS  15
  PRINT_INPUT
END options

BEGIN continuous  FILEOUT  maw10c.obs.csv
  head_well_cell  HEAD  1 1 1
END continuous  FILEOUT  maw10c.obs.csv

