# File generated by Flopy version 3.3.6 on 07/29/2022 at 12:48:39.
BEGIN options
  TIME_UNITS  days
END options

BEGIN dimensions
  NPER  2
END dimensions

BEGIN perioddata
     500.00000000  50       1.20000000
     500.00000000  50       1.20000000
END perioddata

