# File generated by Flopy version 3.3.6 on 07/29/2022 at 12:48:39.
BEGIN options
END options

BEGIN timing
  TDIS6  maw10c.tdis
END timing

BEGIN models
  gwf6  maw10c.nam  maw10c
END models

BEGIN exchanges
END exchanges

BEGIN solutiongroup  1
  ims6  maw10c.ims  maw10c
END solutiongroup  1

