# File generated by Flopy version 3.3.6 on 07/29/2022 at 12:48:26.
BEGIN options
END options

BEGIN griddata
  icelltype
    CONSTANT  0
  k
    CONSTANT       1.00000000
END griddata

