# File generated by Flopy version 3.3.6 on 07/29/2022 at 12:48:26.
BEGIN options
END options

BEGIN dimensions
  NLAY  2
  NROW  101
  NCOL  101
END dimensions

BEGIN griddata
  delr
    INTERNAL  FACTOR  1.0
        16.22071350      12.31585375      12.19391461      12.07318278      11.95364632      11.83529338      11.71811226      11.60209135      11.48721915      11.37348431      11.26087556      11.14938174      11.03899182      10.92969487      10.82148007      10.71433670      10.60825416      10.50322194      10.39922965      10.29626698      10.19432374      10.09338984       9.99345529       9.89451019       9.79654474       9.69954925       9.60351411       9.50842981       9.41428694       9.32107618       9.22878829       9.13741415       9.04694470       8.95737099       8.86868415       8.78087540       8.69393604       8.60785746       8.52263115       8.43824867       8.35470165       8.27198183       8.19008102       8.10899111       8.02870407       7.94921195       7.87050688       7.79258107       7.71542680       7.63903644       7.56340241       7.63903644       7.71542680       7.79258107       7.87050688       7.94921195       8.02870407       8.10899111       8.19008102       8.27198183       8.35470165       8.43824867       8.52263115       8.60785746       8.69393604       8.78087540       8.86868415       8.95737099       9.04694470       9.13741415       9.22878829       9.32107618       9.41428694       9.50842981       9.60351411       9.69954925       9.79654474       9.89451019       9.99345529      10.09338984      10.19432374      10.29626698      10.39922965      10.50322194      10.60825416      10.71433670      10.82148007      10.92969487      11.03899182      11.14938174      11.26087556      11.37348431      11.48721915      11.60209135      11.71811226      11.83529338      11.95364632      12.07318278      12.19391461      12.31585375      16.22071350
  delc
    INTERNAL  FACTOR  1.0
        16.22071350      12.31585375      12.19391461      12.07318278      11.95364632      11.83529338      11.71811226      11.60209135      11.48721915      11.37348431      11.26087556      11.14938174      11.03899182      10.92969487      10.82148007      10.71433670      10.60825416      10.50322194      10.39922965      10.29626698      10.19432374      10.09338984       9.99345529       9.89451019       9.79654474       9.69954925       9.60351411       9.50842981       9.41428694       9.32107618       9.22878829       9.13741415       9.04694470       8.95737099       8.86868415       8.78087540       8.69393604       8.60785746       8.52263115       8.43824867       8.35470165       8.27198183       8.19008102       8.10899111       8.02870407       7.94921195       7.87050688       7.79258107       7.71542680       7.63903644       7.56340241       7.63903644       7.71542680       7.79258107       7.87050688       7.94921195       8.02870407       8.10899111       8.19008102       8.27198183       8.35470165       8.43824867       8.52263115       8.60785746       8.69393604       8.78087540       8.86868415       8.95737099       9.04694470       9.13741415       9.22878829       9.32107618       9.41428694       9.50842981       9.60351411       9.69954925       9.79654474       9.89451019       9.99345529      10.09338984      10.19432374      10.29626698      10.39922965      10.50322194      10.60825416      10.71433670      10.82148007      10.92969487      11.03899182      11.14938174      11.26087556      11.37348431      11.48721915      11.60209135      11.71811226      11.83529338      11.95364632      12.07318278      12.19391461      12.31585375      16.22071350
  top
    CONSTANT       0.00000000
  botm  LAYERED
    CONSTANT    -175.00000000
    CONSTANT    -350.00000000
END griddata

