# File generated by Flopy version 3.3.6 on 07/29/2022 at 12:48:26.
BEGIN options
  SAVE_FLOWS
END options

BEGIN packages
  DIS6  maw_iss305c.dis  dis
  IC6  maw_iss305c.ic  ic
  NPF6  maw_iss305c.npf  npf
  STO6  maw_iss305c.sto  sto
  CHD6  maw_iss305c.chd  chd_0
  MAW6  maw_iss305c.maw  maw_0
  OC6  maw_iss305c.oc  oc
END packages

