# File generated by Flopy version 3.3.6 on 07/29/2022 at 12:48:26.
BEGIN options
  BUDGET  FILEOUT  maw_iss305c.cbc
  HEAD  FILEOUT  maw_iss305c.hds
END options

BEGIN period  1
  SAVE  HEAD  ALL
  SAVE  BUDGET  ALL
END period  1

