# File generated by Flopy version 3.3.6 on 07/29/2022 at 12:48:33.
BEGIN griddata
  strt
    CONSTANT       4.50000000
END griddata

