# File generated by Flopy version 3.3.6 on 07/29/2022 at 12:48:33.
BEGIN options
  PRINT_INPUT
  NEWTON  UNDER_RELAXATION
END options

BEGIN packages
  DIS6  gwf_maw_09a.dis  dis
  IC6  gwf_maw_09a.ic  ic
  NPF6  gwf_maw_09a.npf  npf
  OBS6  gwf_maw_09a.gwf.obs  obs_0
  STO6  gwf_maw_09a.sto  sto
  MAW6  gwf_maw_09a.maw  maw_0
  OC6  gwf_maw_09a.oc  oc
END packages

