# File generated by Flopy version 3.3.6 on 07/29/2022 at 12:48:33.
BEGIN options
  TIME_UNITS  days
END options

BEGIN dimensions
  NPER  1
END dimensions

BEGIN perioddata
      20.00000000  50       1.10000000
END perioddata

