# File generated by Flopy version 3.3.6 on 07/29/2022 at 12:48:13.
BEGIN options
END options

BEGIN packages
  DIS6  gwf_ats03a.dis  dis
  IC6  gwf_ats03a.ic  ic
  NPF6  gwf_ats03a.npf  npf
  STO6  gwf_ats03a.sto  sto
  WEL6  gwf_ats03a.wel  wel_0
  CHD6  gwf_ats03a.chd  chd_0
  OC6  gwf_ats03a.oc  oc
  OBS6  gwf_ats03a.obs  head_obs
END packages

