# File generated by Flopy version 3.3.6 on 07/29/2022 at 12:48:13.
BEGIN options
  PRINT_INPUT
  PRINT_FLOWS
END options

BEGIN dimensions
  MAXBOUND  1
END dimensions

BEGIN period  1
  1 1 1      -1.00000000
END period  1

