# File generated by Flopy version 3.3.6 on 07/29/2022 at 12:48:13.
BEGIN dimensions
  MAXATS  1
END dimensions

BEGIN perioddata
  1     100.00000000  1.00000000E-05     100.00000000       2.00000000       5.00000000
END perioddata

