# File generated by Flopy version 3.3.6 on 07/29/2022 at 12:48:13.
BEGIN options
  PRINT_INPUT
  PRINT_FLOWS
  TS6  FILEIN  gwf_ats03a.chd.ts
END options

BEGIN dimensions
  MAXBOUND  1
END dimensions

BEGIN period  1
  1 1 10  tshead
END period  1

