# File generated by Flopy version 3.3.6 on 07/29/2022 at 12:48:19.
BEGIN options
  SAVE_FLOWS
END options

BEGIN griddata
  icelltype
    CONSTANT  1
  k
    CONSTANT      10.00000000
  k33
    CONSTANT      10.00000000
END griddata

