# File generated by Flopy version 3.3.6 on 07/29/2022 at 12:48:19.
BEGIN griddata
  strt
    CONSTANT       0.00000000
END griddata

