# File generated by Flopy version 3.3.6 on 07/29/2022 at 12:48:19.
BEGIN options
END options

BEGIN packages
  DIS6  maw03b.dis  dis
  IC6  maw03b.ic  ic
  NPF6  maw03b.npf  npf
  STO6  maw03b.sto  sto
  MAW6  maw03b.maw  maw_0
  OC6  maw03b.oc  oc
  OBS6  maw03b.obs  head_obs
END packages

