# File generated by Flopy version 3.3.6 on 07/29/2022 at 12:48:19.
BEGIN options
END options

BEGIN timing
  TDIS6  maw03b.tdis
END timing

BEGIN models
  gwf6  maw03b.nam  maw03b
END models

BEGIN exchanges
END exchanges

BEGIN solutiongroup  1
  ims6  maw03b.ims  maw03b
END solutiongroup  1

