# File generated by Flopy version 3.3.6 on 07/29/2022 at 12:48:14.
BEGIN options
  DIGITS  10
END options

BEGIN continuous  FILEOUT  gwf_ats_lak_01a.lak.obs.csv
  lakestage  stage  1
  lakevolume  volume  1
  lak1  lak  1  1
END continuous  FILEOUT  gwf_ats_lak_01a.lak.obs.csv

