# File generated by Flopy version 3.3.6 on 07/29/2022 at 12:48:14.
BEGIN options
  NEWTON
END options

BEGIN packages
  DIS6  gwf_ats_lak_01a.dis  dis
  IC6  gwf_ats_lak_01a.ic  ic
  NPF6  gwf_ats_lak_01a.npf  npf
  STO6  gwf_ats_lak_01a.sto  sto
  LAK6  gwf_ats_lak_01a.lak  lak-1
  CHD6  gwf_ats_lak_01a.chd  chd_0
  RCH6  gwf_ats_lak_01a.rcha  rcha_0
  OC6  gwf_ats_lak_01a.oc  oc
END packages

