# File generated by Flopy version 3.3.6 on 07/29/2022 at 12:48:14.
BEGIN options
  READASARRAYS
  PRINT_FLOWS
  SAVE_FLOWS
END options

BEGIN period  1
  irch
    INTERNAL  FACTOR  1
    6  6  6  6  6  6  5  4  3  2  1  1  1  1  1  1  1  1  1  1  1  1  1  1  1  1  1  1  1  1
  recharge
    INTERNAL  FACTOR  1.0
    1.00000000E-04  1.00000000E-04  1.00000000E-04  1.00000000E-04  1.00000000E-04  1.00000000E-04  1.00000000E-04  1.00000000E-04  1.00000000E-04  1.00000000E-04  1.00000000E-04  1.00000000E-04  1.00000000E-04  1.00000000E-04  1.00000000E-04  1.00000000E-04  1.00000000E-04  1.00000000E-04  1.00000000E-04  1.00000000E-04  1.00000000E-04  1.00000000E-04  1.00000000E-04  1.00000000E-04  1.00000000E-04  1.00000000E-04  1.00000000E-04  1.00000000E-04  1.00000000E-04  1.00000000E-04
END period  1

