# File generated by Flopy version 3.3.6 on 07/29/2022 at 12:48:14.
BEGIN options
END options

BEGIN dimensions
  NLAY  45
  NROW  1
  NCOL  30
END dimensions

BEGIN griddata
  delr
    CONSTANT      10.00000000
  delc
    CONSTANT       1.00000000
  top
    CONSTANT       5.00000000
  botm  LAYERED
    CONSTANT       4.00000000
    CONSTANT       3.00000000
    CONSTANT       2.00000000
    CONSTANT       1.00000000
    CONSTANT       0.00000000
    CONSTANT      -1.00000000
    CONSTANT      -2.00000000
    CONSTANT      -3.00000000
    CONSTANT      -4.00000000
    CONSTANT      -5.00000000
    CONSTANT      -6.00000000
    CONSTANT      -7.00000000
    CONSTANT      -8.00000000
    CONSTANT      -9.00000000
    CONSTANT     -10.00000000
    CONSTANT     -11.00000000
    CONSTANT     -12.00000000
    CONSTANT     -13.00000000
    CONSTANT     -14.00000000
    CONSTANT     -15.00000000
    CONSTANT     -16.00000000
    CONSTANT     -17.00000000
    CONSTANT     -18.00000000
    CONSTANT     -19.00000000
    CONSTANT     -20.00000000
    CONSTANT     -21.00000000
    CONSTANT     -22.00000000
    CONSTANT     -23.00000000
    CONSTANT     -24.00000000
    CONSTANT     -25.00000000
    CONSTANT     -26.00000000
    CONSTANT     -27.00000000
    CONSTANT     -28.00000000
    CONSTANT     -29.00000000
    CONSTANT     -30.00000000
    CONSTANT     -31.00000000
    CONSTANT     -32.00000000
    CONSTANT     -33.00000000
    CONSTANT     -34.00000000
    CONSTANT     -35.00000000
    CONSTANT     -36.00000000
    CONSTANT     -37.00000000
    CONSTANT     -38.00000000
    CONSTANT     -39.00000000
    CONSTANT     -40.00000000
  idomain  LAYERED
    INTERNAL  FACTOR  1
      0  0  0  0  0  0  0  0  0  0  1  1  1  1  1  1  1  1  1  1  1  1  1  1  1  1  1  1  1  1
    INTERNAL  FACTOR  1
      0  0  0  0  0  0  0  0  0  1  1  1  1  1  1  1  1  1  1  1  1  1  1  1  1  1  1  1  1  1
    INTERNAL  FACTOR  1
      0  0  0  0  0  0  0  0  1  1  1  1  1  1  1  1  1  1  1  1  1  1  1  1  1  1  1  1  1  1
    INTERNAL  FACTOR  1
      0  0  0  0  0  0  0  1  1  1  1  1  1  1  1  1  1  1  1  1  1  1  1  1  1  1  1  1  1  1
    INTERNAL  FACTOR  1
      0  0  0  0  0  0  1  1  1  1  1  1  1  1  1  1  1  1  1  1  1  1  1  1  1  1  1  1  1  1
    INTERNAL  FACTOR  1
      1  1  1  1  1  1  1  1  1  1  1  1  1  1  1  1  1  1  1  1  1  1  1  1  1  1  1  1  1  1
    INTERNAL  FACTOR  1
      1  1  1  1  1  1  1  1  1  1  1  1  1  1  1  1  1  1  1  1  1  1  1  1  1  1  1  1  1  1
    INTERNAL  FACTOR  1
      1  1  1  1  1  1  1  1  1  1  1  1  1  1  1  1  1  1  1  1  1  1  1  1  1  1  1  1  1  1
    INTERNAL  FACTOR  1
      1  1  1  1  1  1  1  1  1  1  1  1  1  1  1  1  1  1  1  1  1  1  1  1  1  1  1  1  1  1
    INTERNAL  FACTOR  1
      1  1  1  1  1  1  1  1  1  1  1  1  1  1  1  1  1  1  1  1  1  1  1  1  1  1  1  1  1  1
    INTERNAL  FACTOR  1
      1  1  1  1  1  1  1  1  1  1  1  1  1  1  1  1  1  1  1  1  1  1  1  1  1  1  1  1  1  1
    INTERNAL  FACTOR  1
      1  1  1  1  1  1  1  1  1  1  1  1  1  1  1  1  1  1  1  1  1  1  1  1  1  1  1  1  1  1
    INTERNAL  FACTOR  1
      1  1  1  1  1  1  1  1  1  1  1  1  1  1  1  1  1  1  1  1  1  1  1  1  1  1  1  1  1  1
    INTERNAL  FACTOR  1
      1  1  1  1  1  1  1  1  1  1  1  1  1  1  1  1  1  1  1  1  1  1  1  1  1  1  1  1  1  1
    INTERNAL  FACTOR  1
      1  1  1  1  1  1  1  1  1  1  1  1  1  1  1  1  1  1  1  1  1  1  1  1  1  1  1  1  1  1
    INTERNAL  FACTOR  1
      1  1  1  1  1  1  1  1  1  1  1  1  1  1  1  1  1  1  1  1  1  1  1  1  1  1  1  1  1  1
    INTERNAL  FACTOR  1
      1  1  1  1  1  1  1  1  1  1  1  1  1  1  1  1  1  1  1  1  1  1  1  1  1  1  1  1  1  1
    INTERNAL  FACTOR  1
      1  1  1  1  1  1  1  1  1  1  1  1  1  1  1  1  1  1  1  1  1  1  1  1  1  1  1  1  1  1
    INTERNAL  FACTOR  1
      1  1  1  1  1  1  1  1  1  1  1  1  1  1  1  1  1  1  1  1  1  1  1  1  1  1  1  1  1  1
    INTERNAL  FACTOR  1
      1  1  1  1  1  1  1  1  1  1  1  1  1  1  1  1  1  1  1  1  1  1  1  1  1  1  1  1  1  1
    INTERNAL  FACTOR  1
      1  1  1  1  1  1  1  1  1  1  1  1  1  1  1  1  1  1  1  1  1  1  1  1  1  1  1  1  1  1
    INTERNAL  FACTOR  1
      1  1  1  1  1  1  1  1  1  1  1  1  1  1  1  1  1  1  1  1  1  1  1  1  1  1  1  1  1  1
    INTERNAL  FACTOR  1
      1  1  1  1  1  1  1  1  1  1  1  1  1  1  1  1  1  1  1  1  1  1  1  1  1  1  1  1  1  1
    INTERNAL  FACTOR  1
      1  1  1  1  1  1  1  1  1  1  1  1  1  1  1  1  1  1  1  1  1  1  1  1  1  1  1  1  1  1
    INTERNAL  FACTOR  1
      1  1  1  1  1  1  1  1  1  1  1  1  1  1  1  1  1  1  1  1  1  1  1  1  1  1  1  1  1  1
    INTERNAL  FACTOR  1
      1  1  1  1  1  1  1  1  1  1  1  1  1  1  1  1  1  1  1  1  1  1  1  1  1  1  1  1  1  1
    INTERNAL  FACTOR  1
      1  1  1  1  1  1  1  1  1  1  1  1  1  1  1  1  1  1  1  1  1  1  1  1  1  1  1  1  1  1
    INTERNAL  FACTOR  1
      1  1  1  1  1  1  1  1  1  1  1  1  1  1  1  1  1  1  1  1  1  1  1  1  1  1  1  1  1  1
    INTERNAL  FACTOR  1
      1  1  1  1  1  1  1  1  1  1  1  1  1  1  1  1  1  1  1  1  1  1  1  1  1  1  1  1  1  1
    INTERNAL  FACTOR  1
      1  1  1  1  1  1  1  1  1  1  1  1  1  1  1  1  1  1  1  1  1  1  1  1  1  1  1  1  1  1
    INTERNAL  FACTOR  1
      1  1  1  1  1  1  1  1  1  1  1  1  1  1  1  1  1  1  1  1  1  1  1  1  1  1  1  1  1  1
    INTERNAL  FACTOR  1
      1  1  1  1  1  1  1  1  1  1  1  1  1  1  1  1  1  1  1  1  1  1  1  1  1  1  1  1  1  1
    INTERNAL  FACTOR  1
      1  1  1  1  1  1  1  1  1  1  1  1  1  1  1  1  1  1  1  1  1  1  1  1  1  1  1  1  1  1
    INTERNAL  FACTOR  1
      1  1  1  1  1  1  1  1  1  1  1  1  1  1  1  1  1  1  1  1  1  1  1  1  1  1  1  1  1  1
    INTERNAL  FACTOR  1
      1  1  1  1  1  1  1  1  1  1  1  1  1  1  1  1  1  1  1  1  1  1  1  1  1  1  1  1  1  1
    INTERNAL  FACTOR  1
      1  1  1  1  1  1  1  1  1  1  1  1  1  1  1  1  1  1  1  1  1  1  1  1  1  1  1  1  1  1
    INTERNAL  FACTOR  1
      1  1  1  1  1  1  1  1  1  1  1  1  1  1  1  1  1  1  1  1  1  1  1  1  1  1  1  1  1  1
    INTERNAL  FACTOR  1
      1  1  1  1  1  1  1  1  1  1  1  1  1  1  1  1  1  1  1  1  1  1  1  1  1  1  1  1  1  1
    INTERNAL  FACTOR  1
      1  1  1  1  1  1  1  1  1  1  1  1  1  1  1  1  1  1  1  1  1  1  1  1  1  1  1  1  1  1
    INTERNAL  FACTOR  1
      1  1  1  1  1  1  1  1  1  1  1  1  1  1  1  1  1  1  1  1  1  1  1  1  1  1  1  1  1  1
    INTERNAL  FACTOR  1
      1  1  1  1  1  1  1  1  1  1  1  1  1  1  1  1  1  1  1  1  1  1  1  1  1  1  1  1  1  1
    INTERNAL  FACTOR  1
      1  1  1  1  1  1  1  1  1  1  1  1  1  1  1  1  1  1  1  1  1  1  1  1  1  1  1  1  1  1
    INTERNAL  FACTOR  1
      1  1  1  1  1  1  1  1  1  1  1  1  1  1  1  1  1  1  1  1  1  1  1  1  1  1  1  1  1  1
    INTERNAL  FACTOR  1
      1  1  1  1  1  1  1  1  1  1  1  1  1  1  1  1  1  1  1  1  1  1  1  1  1  1  1  1  1  1
    INTERNAL  FACTOR  1
      1  1  1  1  1  1  1  1  1  1  1  1  1  1  1  1  1  1  1  1  1  1  1  1  1  1  1  1  1  1
END griddata

