# File generated by Flopy version 3.3.6 on 07/29/2022 at 12:48:14.
BEGIN options
END options

BEGIN dimensions
  MAXBOUND  1
END dimensions

BEGIN period  1
  1 1 30       5.00000000
END period  1

