# File generated by Flopy version 3.3.6 on 07/29/2022 at 12:48:14.
BEGIN options
  PRINT_INPUT
  PRINT_STAGE
  PRINT_FLOWS
  SAVE_FLOWS
  STAGE  FILEOUT  gwf_ats_lak_01a.lak.bin
  BUDGET  FILEOUT  gwf_ats_lak_01a.lak.bud
  OBS6  FILEIN  gwf_ats_lak_01a.lak.obs
  SURFDEP       0.00000000
END options

BEGIN dimensions
  NLAKES  1
  NTABLES  0
END dimensions

BEGIN packagedata
  1       0.10000000  10
END packagedata

BEGIN connectiondata
  1  1  2 1 10  VERTICAL     100.00000000       0.00000000     -99.00000000     -99.00000000     -99.00000000
  1  2  3 1 9  VERTICAL     100.00000000       0.00000000     -99.00000000     -99.00000000     -99.00000000
  1  3  4 1 8  VERTICAL     100.00000000       0.00000000     -99.00000000     -99.00000000     -99.00000000
  1  4  5 1 7  VERTICAL     100.00000000       0.00000000     -99.00000000     -99.00000000     -99.00000000
  1  5  6 1 1  VERTICAL     100.00000000       0.00000000     -99.00000000     -99.00000000     -99.00000000
  1  6  6 1 2  VERTICAL     100.00000000       0.00000000     -99.00000000     -99.00000000     -99.00000000
  1  7  6 1 3  VERTICAL     100.00000000       0.00000000     -99.00000000     -99.00000000     -99.00000000
  1  8  6 1 4  VERTICAL     100.00000000       0.00000000     -99.00000000     -99.00000000     -99.00000000
  1  9  6 1 5  VERTICAL     100.00000000       0.00000000     -99.00000000     -99.00000000     -99.00000000
  1  10  6 1 6  VERTICAL     100.00000000       0.00000000     -99.00000000     -99.00000000     -99.00000000
END connectiondata

BEGIN period  1
  1  STATUS  ACTIVE
END period  1

