# File generated by Flopy version 3.3.6 on 07/29/2022 at 12:48:14.
BEGIN options
END options

BEGIN timing
  TDIS6  gwf_ats_lak_01a.tdis
END timing

BEGIN models
  gwf6  gwf_ats_lak_01a.nam  gwf_ats_lak_01a
END models

BEGIN exchanges
END exchanges

BEGIN solutiongroup  1
  ims6  gwf_ats_lak_01a.ims  gwf_ats_lak_01a
END solutiongroup  1

