# File generated by Flopy version 3.3.6 on 07/29/2022 at 12:48:18.
BEGIN options
  NEWTON  UNDER_RELAXATION
END options

BEGIN packages
  DIS6  maw01nwtur.dis  dis
  IC6  maw01nwtur.ic  ic
  NPF6  maw01nwtur.npf  npf
  STO6  maw01nwtur.sto  sto
  CHD6  maw01nwtur.chd  chd_0
  MAW6  maw01nwtur.maw  maw_0
  OC6  maw01nwtur.oc  oc
END packages

