# File generated by Flopy version 3.3.6 on 07/29/2022 at 12:48:18.
BEGIN options
END options

BEGIN continuous  FILEOUT  maw03a.maw.obs.csv
  m1head  head  1
  m1rate  rate  1
END continuous  FILEOUT  maw03a.maw.obs.csv

