# File generated by Flopy version 3.3.6 on 07/29/2022 at 12:48:18.
BEGIN options
END options

BEGIN packages
  DIS6  maw03a.dis  dis
  IC6  maw03a.ic  ic
  NPF6  maw03a.npf  npf
  STO6  maw03a.sto  sto
  MAW6  maw03a.maw  maw_0
  OC6  maw03a.oc  oc
  OBS6  maw03a.obs  head_obs
END packages

