# File generated by Flopy version 3.3.6 on 07/29/2022 at 12:48:18.
BEGIN options
END options

BEGIN timing
  TDIS6  maw03a.tdis
END timing

BEGIN models
  gwf6  maw03a.nam  maw03a
END models

BEGIN exchanges
END exchanges

BEGIN solutiongroup  1
  ims6  maw03a.ims  maw03a
END solutiongroup  1

