# File generated by Flopy version 3.3.6 on 07/29/2022 at 12:48:30.
BEGIN options
  NEWTON  UNDER_RELAXATION
END options

BEGIN packages
  DIS6  gwf_maw_06a.dis  dis
  IC6  gwf_maw_06a.ic  ic
  NPF6  gwf_maw_06a.npf  npf
  STO6  gwf_maw_06a.sto  sto
  MAW6  gwf_maw_06a.maw  maw-1
  OC6  gwf_maw_06a.oc  oc
END packages

