# File generated by Flopy version 3.3.6 on 07/29/2022 at 12:48:30.
BEGIN options
END options

BEGIN griddata
  iconvert
    CONSTANT  1
  ss
    CONSTANT       0.00000000
  sy
    CONSTANT       1.00000000
END griddata

