# File generated by Flopy version 3.3.6 on 07/29/2022 at 12:48:30.
BEGIN griddata
  strt
    CONSTANT       2.00000000
END griddata

