# File generated by Flopy version 3.3.6 on 07/29/2022 at 12:48:27.
BEGIN options
END options

BEGIN dimensions
  MAXBOUND  400
END dimensions

BEGIN period  1
  1 1 1       0.00000000
  1 1 2       0.00000000
  1 1 3       0.00000000
  1 1 4       0.00000000
  1 1 5       0.00000000
  1 1 6       0.00000000
  1 1 7       0.00000000
  1 1 8       0.00000000
  1 1 9       0.00000000
  1 1 10       0.00000000
  1 1 11       0.00000000
  1 1 12       0.00000000
  1 1 13       0.00000000
  1 1 14       0.00000000
  1 1 15       0.00000000
  1 1 16       0.00000000
  1 1 17       0.00000000
  1 1 18       0.00000000
  1 1 19       0.00000000
  1 1 20       0.00000000
  1 1 21       0.00000000
  1 1 22       0.00000000
  1 1 23       0.00000000
  1 1 24       0.00000000
  1 1 25       0.00000000
  1 1 26       0.00000000
  1 1 27       0.00000000
  1 1 28       0.00000000
  1 1 29       0.00000000
  1 1 30       0.00000000
  1 1 31       0.00000000
  1 1 32       0.00000000
  1 1 33       0.00000000
  1 1 34       0.00000000
  1 1 35       0.00000000
  1 1 36       0.00000000
  1 1 37       0.00000000
  1 1 38       0.00000000
  1 1 39       0.00000000
  1 1 40       0.00000000
  1 1 41       0.00000000
  1 1 42       0.00000000
  1 1 43       0.00000000
  1 1 44       0.00000000
  1 1 45       0.00000000
  1 1 46       0.00000000
  1 1 47       0.00000000
  1 1 48       0.00000000
  1 1 49       0.00000000
  1 1 50       0.00000000
  1 1 51       0.00000000
  1 1 52       0.00000000
  1 1 53       0.00000000
  1 1 54       0.00000000
  1 1 55       0.00000000
  1 1 56       0.00000000
  1 1 57       0.00000000
  1 1 58       0.00000000
  1 1 59       0.00000000
  1 1 60       0.00000000
  1 1 61       0.00000000
  1 1 62       0.00000000
  1 1 63       0.00000000
  1 1 64       0.00000000
  1 1 65       0.00000000
  1 1 66       0.00000000
  1 1 67       0.00000000
  1 1 68       0.00000000
  1 1 69       0.00000000
  1 1 70       0.00000000
  1 1 71       0.00000000
  1 1 72       0.00000000
  1 1 73       0.00000000
  1 1 74       0.00000000
  1 1 75       0.00000000
  1 1 76       0.00000000
  1 1 77       0.00000000
  1 1 78       0.00000000
  1 1 79       0.00000000
  1 1 80       0.00000000
  1 1 81       0.00000000
  1 1 82       0.00000000
  1 1 83       0.00000000
  1 1 84       0.00000000
  1 1 85       0.00000000
  1 1 86       0.00000000
  1 1 87       0.00000000
  1 1 88       0.00000000
  1 1 89       0.00000000
  1 1 90       0.00000000
  1 1 91       0.00000000
  1 1 92       0.00000000
  1 1 93       0.00000000
  1 1 94       0.00000000
  1 1 95       0.00000000
  1 1 96       0.00000000
  1 1 97       0.00000000
  1 1 98       0.00000000
  1 1 99       0.00000000
  1 1 100       0.00000000
  1 1 101       0.00000000
  1 2 1       0.00000000
  1 2 101       0.00000000
  1 3 1       0.00000000
  1 3 101       0.00000000
  1 4 1       0.00000000
  1 4 101       0.00000000
  1 5 1       0.00000000
  1 5 101       0.00000000
  1 6 1       0.00000000
  1 6 101       0.00000000
  1 7 1       0.00000000
  1 7 101       0.00000000
  1 8 1       0.00000000
  1 8 101       0.00000000
  1 9 1       0.00000000
  1 9 101       0.00000000
  1 10 1       0.00000000
  1 10 101       0.00000000
  1 11 1       0.00000000
  1 11 101       0.00000000
  1 12 1       0.00000000
  1 12 101       0.00000000
  1 13 1       0.00000000
  1 13 101       0.00000000
  1 14 1       0.00000000
  1 14 101       0.00000000
  1 15 1       0.00000000
  1 15 101       0.00000000
  1 16 1       0.00000000
  1 16 101       0.00000000
  1 17 1       0.00000000
  1 17 101       0.00000000
  1 18 1       0.00000000
  1 18 101       0.00000000
  1 19 1       0.00000000
  1 19 101       0.00000000
  1 20 1       0.00000000
  1 20 101       0.00000000
  1 21 1       0.00000000
  1 21 101       0.00000000
  1 22 1       0.00000000
  1 22 101       0.00000000
  1 23 1       0.00000000
  1 23 101       0.00000000
  1 24 1       0.00000000
  1 24 101       0.00000000
  1 25 1       0.00000000
  1 25 101       0.00000000
  1 26 1       0.00000000
  1 26 101       0.00000000
  1 27 1       0.00000000
  1 27 101       0.00000000
  1 28 1       0.00000000
  1 28 101       0.00000000
  1 29 1       0.00000000
  1 29 101       0.00000000
  1 30 1       0.00000000
  1 30 101       0.00000000
  1 31 1       0.00000000
  1 31 101       0.00000000
  1 32 1       0.00000000
  1 32 101       0.00000000
  1 33 1       0.00000000
  1 33 101       0.00000000
  1 34 1       0.00000000
  1 34 101       0.00000000
  1 35 1       0.00000000
  1 35 101       0.00000000
  1 36 1       0.00000000
  1 36 101       0.00000000
  1 37 1       0.00000000
  1 37 101       0.00000000
  1 38 1       0.00000000
  1 38 101       0.00000000
  1 39 1       0.00000000
  1 39 101       0.00000000
  1 40 1       0.00000000
  1 40 101       0.00000000
  1 41 1       0.00000000
  1 41 101       0.00000000
  1 42 1       0.00000000
  1 42 101       0.00000000
  1 43 1       0.00000000
  1 43 101       0.00000000
  1 44 1       0.00000000
  1 44 101       0.00000000
  1 45 1       0.00000000
  1 45 101       0.00000000
  1 46 1       0.00000000
  1 46 101       0.00000000
  1 47 1       0.00000000
  1 47 101       0.00000000
  1 48 1       0.00000000
  1 48 101       0.00000000
  1 49 1       0.00000000
  1 49 101       0.00000000
  1 50 1       0.00000000
  1 50 101       0.00000000
  1 51 1       0.00000000
  1 51 101       0.00000000
  1 52 1       0.00000000
  1 52 101       0.00000000
  1 53 1       0.00000000
  1 53 101       0.00000000
  1 54 1       0.00000000
  1 54 101       0.00000000
  1 55 1       0.00000000
  1 55 101       0.00000000
  1 56 1       0.00000000
  1 56 101       0.00000000
  1 57 1       0.00000000
  1 57 101       0.00000000
  1 58 1       0.00000000
  1 58 101       0.00000000
  1 59 1       0.00000000
  1 59 101       0.00000000
  1 60 1       0.00000000
  1 60 101       0.00000000
  1 61 1       0.00000000
  1 61 101       0.00000000
  1 62 1       0.00000000
  1 62 101       0.00000000
  1 63 1       0.00000000
  1 63 101       0.00000000
  1 64 1       0.00000000
  1 64 101       0.00000000
  1 65 1       0.00000000
  1 65 101       0.00000000
  1 66 1       0.00000000
  1 66 101       0.00000000
  1 67 1       0.00000000
  1 67 101       0.00000000
  1 68 1       0.00000000
  1 68 101       0.00000000
  1 69 1       0.00000000
  1 69 101       0.00000000
  1 70 1       0.00000000
  1 70 101       0.00000000
  1 71 1       0.00000000
  1 71 101       0.00000000
  1 72 1       0.00000000
  1 72 101       0.00000000
  1 73 1       0.00000000
  1 73 101       0.00000000
  1 74 1       0.00000000
  1 74 101       0.00000000
  1 75 1       0.00000000
  1 75 101       0.00000000
  1 76 1       0.00000000
  1 76 101       0.00000000
  1 77 1       0.00000000
  1 77 101       0.00000000
  1 78 1       0.00000000
  1 78 101       0.00000000
  1 79 1       0.00000000
  1 79 101       0.00000000
  1 80 1       0.00000000
  1 80 101       0.00000000
  1 81 1       0.00000000
  1 81 101       0.00000000
  1 82 1       0.00000000
  1 82 101       0.00000000
  1 83 1       0.00000000
  1 83 101       0.00000000
  1 84 1       0.00000000
  1 84 101       0.00000000
  1 85 1       0.00000000
  1 85 101       0.00000000
  1 86 1       0.00000000
  1 86 101       0.00000000
  1 87 1       0.00000000
  1 87 101       0.00000000
  1 88 1       0.00000000
  1 88 101       0.00000000
  1 89 1       0.00000000
  1 89 101       0.00000000
  1 90 1       0.00000000
  1 90 101       0.00000000
  1 91 1       0.00000000
  1 91 101       0.00000000
  1 92 1       0.00000000
  1 92 101       0.00000000
  1 93 1       0.00000000
  1 93 101       0.00000000
  1 94 1       0.00000000
  1 94 101       0.00000000
  1 95 1       0.00000000
  1 95 101       0.00000000
  1 96 1       0.00000000
  1 96 101       0.00000000
  1 97 1       0.00000000
  1 97 101       0.00000000
  1 98 1       0.00000000
  1 98 101       0.00000000
  1 99 1       0.00000000
  1 99 101       0.00000000
  1 100 1       0.00000000
  1 100 101       0.00000000
  1 101 1       0.00000000
  1 101 2       0.00000000
  1 101 3       0.00000000
  1 101 4       0.00000000
  1 101 5       0.00000000
  1 101 6       0.00000000
  1 101 7       0.00000000
  1 101 8       0.00000000
  1 101 9       0.00000000
  1 101 10       0.00000000
  1 101 11       0.00000000
  1 101 12       0.00000000
  1 101 13       0.00000000
  1 101 14       0.00000000
  1 101 15       0.00000000
  1 101 16       0.00000000
  1 101 17       0.00000000
  1 101 18       0.00000000
  1 101 19       0.00000000
  1 101 20       0.00000000
  1 101 21       0.00000000
  1 101 22       0.00000000
  1 101 23       0.00000000
  1 101 24       0.00000000
  1 101 25       0.00000000
  1 101 26       0.00000000
  1 101 27       0.00000000
  1 101 28       0.00000000
  1 101 29       0.00000000
  1 101 30       0.00000000
  1 101 31       0.00000000
  1 101 32       0.00000000
  1 101 33       0.00000000
  1 101 34       0.00000000
  1 101 35       0.00000000
  1 101 36       0.00000000
  1 101 37       0.00000000
  1 101 38       0.00000000
  1 101 39       0.00000000
  1 101 40       0.00000000
  1 101 41       0.00000000
  1 101 42       0.00000000
  1 101 43       0.00000000
  1 101 44       0.00000000
  1 101 45       0.00000000
  1 101 46       0.00000000
  1 101 47       0.00000000
  1 101 48       0.00000000
  1 101 49       0.00000000
  1 101 50       0.00000000
  1 101 51       0.00000000
  1 101 52       0.00000000
  1 101 53       0.00000000
  1 101 54       0.00000000
  1 101 55       0.00000000
  1 101 56       0.00000000
  1 101 57       0.00000000
  1 101 58       0.00000000
  1 101 59       0.00000000
  1 101 60       0.00000000
  1 101 61       0.00000000
  1 101 62       0.00000000
  1 101 63       0.00000000
  1 101 64       0.00000000
  1 101 65       0.00000000
  1 101 66       0.00000000
  1 101 67       0.00000000
  1 101 68       0.00000000
  1 101 69       0.00000000
  1 101 70       0.00000000
  1 101 71       0.00000000
  1 101 72       0.00000000
  1 101 73       0.00000000
  1 101 74       0.00000000
  1 101 75       0.00000000
  1 101 76       0.00000000
  1 101 77       0.00000000
  1 101 78       0.00000000
  1 101 79       0.00000000
  1 101 80       0.00000000
  1 101 81       0.00000000
  1 101 82       0.00000000
  1 101 83       0.00000000
  1 101 84       0.00000000
  1 101 85       0.00000000
  1 101 86       0.00000000
  1 101 87       0.00000000
  1 101 88       0.00000000
  1 101 89       0.00000000
  1 101 90       0.00000000
  1 101 91       0.00000000
  1 101 92       0.00000000
  1 101 93       0.00000000
  1 101 94       0.00000000
  1 101 95       0.00000000
  1 101 96       0.00000000
  1 101 97       0.00000000
  1 101 98       0.00000000
  1 101 99       0.00000000
  1 101 100       0.00000000
  1 101 101       0.00000000
END period  1

