# File generated by Flopy version 3.3.6 on 07/29/2022 at 12:48:27.
BEGIN options
  SAVE_FLOWS
END options

BEGIN packages
  DIS6  maw_iss305d.dis  dis
  IC6  maw_iss305d.ic  ic
  NPF6  maw_iss305d.npf  npf
  STO6  maw_iss305d.sto  sto
  CHD6  maw_iss305d.chd  chd_0
  MAW6  maw_iss305d.maw  maw_0
  OC6  maw_iss305d.oc  oc
END packages

