# File generated by Flopy version 3.3.6 on 07/29/2022 at 12:48:18.
BEGIN options
END options

BEGIN dimensions
  MAXBOUND  2
END dimensions

BEGIN period  1
  1 1 1     100.00000000
  1 1 3     100.00000000
END period  1

BEGIN period  2
  1 1 1      25.00000000
  1 1 3      25.00000000
END period  2

BEGIN period  3
  1 1 1     100.00000000
  1 1 3     100.00000000
END period  3

