# File generated by Flopy version 3.3.6 on 07/29/2022 at 12:48:18.
BEGIN options
  PRINT_INPUT
  PRINT_HEAD
  PRINT_FLOWS
  SAVE_FLOWS
  BUDGET  FILEOUT  maw02.maw.cbc
  OBS6  FILEIN  maw02.maw.obs
END options

BEGIN dimensions
  NMAWWELLS  2
END dimensions

BEGIN packagedata
  1       0.10000000       0.00000000     100.00000000  THIEM  1
  2       0.10000000       0.00000000     100.00000000  THIEM  1
END packagedata

BEGIN connectiondata
  1  1  1 1 2     100.00000000       0.00000000       1.00000000       0.10000000
  2  1  1 1 2     100.00000000       0.00000000       1.00000000       0.10000000
END connectiondata

BEGIN period  1
  1  rate     -20.00000000
  1  status  inactive
  1  rate_scaling       1.00000000      15.00000000
  2  rate     -30.00000000
  2  status  inactive
  2  rate_scaling       5.00000000      15.00000000
END period  1

BEGIN period  2
  1  rate    -110.00000000
  1  status  active
  2  rate    -130.00000000
  2  status  active
END period  2

BEGIN period  4
  1  status  inactive
END period  4

BEGIN period  5
  1  status  active
END period  5

