# File generated by Flopy version 3.3.6 on 07/29/2022 at 12:48:18.
BEGIN options
END options

BEGIN packages
  DIS6  maw02.dis  dis
  IC6  maw02.ic  ic
  NPF6  maw02.npf  npf
  STO6  maw02.sto  sto
  CHD6  maw02.chd  chd_0
  MAW6  maw02.maw  maw-1
  OC6  maw02.oc  oc
END packages

