# File generated by Flopy version 3.3.6 on 07/29/2022 at 12:48:18.
BEGIN options
END options

BEGIN continuous  FILEOUT  maw_obs.csv
  mh1  head  1
END continuous  FILEOUT  maw_obs.csv

