# File generated by Flopy version 3.3.6 on 07/29/2022 at 12:48:34.
BEGIN options
END options

BEGIN dimensions
  NLAY  3
  NROW  1
  NCOL  1
END dimensions

BEGIN griddata
  delr
    CONSTANT       1.00000000
  delc
    CONSTANT       1.00000000
  top
    CONSTANT      30.00000000
  botm  LAYERED
    CONSTANT      20.00000000
    CONSTANT      10.00000000
    CONSTANT       0.00000000
END griddata

