# File generated by Flopy version 3.3.6 on 07/29/2022 at 12:48:34.
BEGIN options
  PRINT_INPUT
  NEWTON  UNDER_RELAXATION
END options

BEGIN packages
  DIS6  gwf_maw_09b.dis  dis
  IC6  gwf_maw_09b.ic  ic
  NPF6  gwf_maw_09b.npf  npf
  OBS6  gwf_maw_09b.gwf.obs  obs_0
  STO6  gwf_maw_09b.sto  sto
  MAW6  gwf_maw_09b.maw  maw_0
  OC6  gwf_maw_09b.oc  oc
END packages

