# File generated by Flopy version 3.3.6 on 07/29/2022 at 12:48:34.
BEGIN options
  MEMORY_PRINT_OPTION  summary
END options

BEGIN timing
  TDIS6  maw_09b.tdis
END timing

BEGIN models
  gwf6  gwf_maw_09b.nam  gwf_maw_09b
END models

BEGIN exchanges
END exchanges

BEGIN solutiongroup  1
  ims6  maw_09b.ims  gwf_maw_09b
END solutiongroup  1

